@<TRIPOS>MOLECULE
CHG
   21    20     1     0     0
SMALL
No Charge or Current Charge


@<TRIPOS>ATOM
      1 N           76.2940    51.6170    14.1970 n          1 CHG       -0.400000
      2 C           75.4970    52.8680    14.1820 c3         1 CHG        0.080000
      3 C1          75.6770    53.8050    15.3990 c3         1 CHG       -0.080000
      4 C2          74.7540    55.0070    15.3280 c          1 CHG        0.800000
      5 O           75.1810    56.0050    16.0560 o          1 CHG       -0.900000
      6 O1          73.6220    54.9640    14.8900 o          1 CHG       -0.900000
      7 C3          77.7010    51.6770    14.6330 c3         1 CHG        0.040000
      8 C4          78.6240    52.3090    13.6090 c          1 CHG        0.600000
      9 O2          78.3800    52.3500    12.4200 o          1 CHG       -0.600000
     10 N1          79.7720    52.8120    14.0930 n          1 CHG       -0.660000
     11 H           74.4380    52.6000    14.1230 h1         1 CHG        0.040000
     12 H1          75.7490    53.4210    13.2730 h1         1 CHG        0.040000
     13 H2          75.4710    53.2590    16.3230 hc         1 CHG        0.040000
     14 H3          76.7090    54.1600    15.4460 hc         1 CHG        0.040000
     15 H4          78.0710    50.6630    14.8080 h1         1 CHG        0.100000
     16 H5          77.7910    52.2290    15.5720 h1         1 CHG        0.100000
     17 H6          79.9810    52.7550    15.0780 hn         1 CHG        0.330000
     18 H7          80.4400    53.2250    13.4600 hn         1 CHG        0.330000
     19 C5          75.8760    50.5080    13.5450 c          1 CHG        0.000000
     20 O3          74.7760    50.3930    13.0430 o          1 CHG        0.000000
     21 H8          76.3140    49.5290    13.2980 h5         1 CHG        0.000000
@<TRIPOS>BOND
     1     1     2 1
     2     1     7 1
     3     1    19 1
     4     2     3 1
     5     2    11 1
     6     2    12 1
     7     3     4 1
     8     3    13 1
     9     3    14 1
    10     4     5 1
    11     4     6 2
    12     7     8 1
    13     7    15 1
    14     7    16 1
    15     8     9 2
    16     8    10 1
    17    10    17 1
    18    10    18 1
    19    19    20 2
    20    19    21 1
@<TRIPOS>SUBSTRUCTURE
     1 CHG         1 TEMP              0 ****  ****    0 ROOT
