@<TRIPOS>MOLECULE
generated by VMD
   46   45    1    0    0
SMALL
USER_CHARGES
****
Energy = 0

@<TRIPOS>ATOM
      1  C          0.4830   -0.5280    0.1730   c3    1  HPT       -0.180000
      2  C1         1.9300   -0.2710    0.5500    c    1  HPT        0.600000
      3  O          2.6200   -1.2020    0.9200    o    1  HPT       -0.600000
      4  N          2.4740    0.9620    0.3210    n    1  HPT       -0.400000
      5  C2         1.6770    2.1560   -0.0730   c3    1  HPT        0.080000
      6  C3         1.6040    3.2700    1.0030   c3    1  HPT       -0.080000
      7  C4         0.2820    3.3280    1.8040   c3    1  HPT       -0.080000
      8  C5        -0.9670    3.6280    0.9340   c3    1  HPT       -0.080000
      9  C6        -2.0350    4.3990    1.7450   c3    1  HPT       -0.080000
     10  C7        -3.4070    4.4610    1.0340   c3    1  HPT       -0.080000
     11  C8        -4.3820    5.3630    1.8240   c3    1  HPT       -0.080000
     12  C9        -5.8140    5.3400    1.2440   c3    1  HPT       -0.080000
     13  C10       -6.7470    6.2650    2.0580   c3    1  HPT       -0.080000
     14  C11       -8.1890    6.2440    1.5190   c3    1  HPT       -0.090000
     15  C12        3.9620    1.0740    0.3980   c3    1  HPT        0.040000
     16  C13        4.6980    2.3930    0.1740    c    1  HPT        0.600000
     17  O1         4.3180    3.3150   -0.5160    o    1  HPT       -0.600000
     18  N1         5.9600    2.3970    0.6400    n    1  HPT        0.000000
     19  H          0.2510   -1.5910    0.2740   hc    1  HPT        0.060000
     20  H1         0.3040   -0.2480   -0.8680   hc    1  HPT        0.060000
     21  H2        -0.1920    0.0370    0.8190   hc    1  HPT        0.060000
     22  H3         2.1140    2.5670   -0.9840   h1    1  HPT        0.040000
     23  H4         0.6610    1.8780   -0.3490   h1    1  HPT        0.040000
     24  H5         1.7470    4.2350    0.5100   hc    1  HPT        0.040000
     25  H6         2.4330    3.1630    1.7070   hc    1  HPT        0.040000
     26  H7         0.3940    4.1220    2.5470   hc    1  HPT        0.040000
     27  H8         0.1330    2.3980    2.3570   hc    1  HPT        0.040000
     28  H9        -1.3830    2.6870    0.5650   hc    1  HPT        0.040000
     29  H10       -0.6890    4.2280    0.0630   hc    1  HPT        0.040000
     30  H11       -2.1660    3.9250    2.7220   hc    1  HPT        0.040000
     31  H12       -1.6740    5.4150    1.9230   hc    1  HPT        0.040000
     32  H13       -3.8180    3.4510    0.9550   hc    1  HPT        0.040000
     33  H14       -3.2870    4.8510    0.0200   hc    1  HPT        0.040000
     34  H15       -4.0060    6.3890    1.8180   hc    1  HPT        0.040000
     35  H16       -4.4170    5.0340    2.8660   hc    1  HPT        0.040000
     36  H17       -5.7950    5.6630    0.2000   hc    1  HPT        0.040000
     37  H18       -6.2020    4.3180    1.2690   hc    1  HPT        0.040000
     38  H19       -6.3680    7.2900    2.0240   hc    1  HPT        0.040000
     39  H20       -6.7530    5.9530    3.1050   hc    1  HPT        0.040000
     40  H21       -8.2210    6.5810    0.4810   hc    1  HPT        0.030000
     41  H22       -8.8220    6.9070    2.1140   hc    1  HPT        0.030000
     42  H23       -8.6070    5.2350    1.5720   hc    1  HPT        0.030000
     43  H24        4.3880    0.3760   -0.3280   h1    1  HPT        0.100000
     44  H25        4.2610    0.7320    1.3930   h1    1  HPT        0.100000
     45  H26        6.3300    1.5860    1.1120   hn    1  HPT        0.000000
     46  H27        6.5580    3.1870    0.4550   hn    1  HPT        0.000000
@<TRIPOS>BOND
    1     1     2  1
    2     1    19  1
    3     1    20  1
    4     1    21  1
    5     2     3  2
    6     2     4  1
    7     4     5  1
    8     4    15  1
    9     5     6  1
   10     5    22  1
   11     5    23  1
   12     6     7  1
   13     6    24  1
   14     6    25  1
   15     7     8  1
   16     7    26  1
   17     7    27  1
   18     8     9  1
   19     8    28  1
   20     8    29  1
   21     9    10  1
   22     9    30  1
   23     9    31  1
   24    10    11  1
   25    10    32  1
   26    10    33  1
   27    11    12  1
   28    11    34  1
   29    11    35  1
   30    12    13  1
   31    12    36  1
   32    12    37  1
   33    13    14  1
   34    13    38  1
   35    13    39  1
   36    14    40  1
   37    14    41  1
   38    14    42  1
   39    15    16  1
   40    15    43  1
   41    15    44  1
   42    16    17  2
   43    16    18  1
   44    18    45  1
   45    18    46  1

@<TRIPOS>SUBSTRUCTURE
1 ****        1 TEMP                        0 ****  **** 0 ROOT
