@<TRIPOS>MOLECULE
generated by VMD
   23   22    1    0    0
SMALL
USER_CHARGES
****
Energy = 0

@<TRIPOS>ATOM
      1  C         33.3810   20.7400    6.0980    c    1  MUN        0.000000
      2  N         33.8040   22.0170    6.2300    n    1  MUN       -0.400000
      3  C1        32.9200   23.1710    5.9620   c3    1  MUN        0.080000
      4  C2        32.2640   23.7130    7.2480   c3    1  MUN        0.100000
      5  O         31.2790   24.7220    6.9220   os    1  MUN       -0.400000
      6  C3        29.9860   24.2220    6.5040   c3    1  MUN        0.100000
      7  C4        35.0750   22.2880    6.9250   c3    1  MUN        0.040000
      8  C5        35.8990   23.4050    6.3190    c    1  MUN        0.600000
      9  O1        35.9260   24.5270    6.7790    o    1  MUN       -0.600000
     10  H         32.1430   22.8660    5.2570   h1    1  MUN        0.040000
     11  H1        33.4900   23.9720    5.4840   h1    1  MUN        0.040000
     12  H2        31.7860   22.9050    7.8110   h1    1  MUN        0.040000
     13  H3        33.0300   24.1790    7.8730   h1    1  MUN        0.040000
     14  H4        29.3280   25.0720    6.3060   h1    1  MUN        0.040000
     15  H5        29.5580   23.6110    7.3040   h1    1  MUN        0.040000
     16  H6        30.0900   23.6240    5.5950   h1    1  MUN        0.040000
     17  H7        35.6940   21.3860    6.9120   h1    1  MUN        0.100000
     18  H8        34.8710   22.5550    7.9650   h1    1  MUN        0.100000
     19  N1        36.5200   23.1110    5.1630    n    1  MUN        0.000000
     20  O2        32.2900   20.4290    5.6630    o    1  MUN        0.000000
     21  H9        33.0970   19.6800    6.0160   h5    1  MUN        0.000000
     22  H10       36.4540   22.1850    4.7710   hn    1  MUN        0.000000
     23  H11       37.0550   23.8230    4.6890   hn    1  MUN        0.000000
@<TRIPOS>BOND
    1     1     2  1
    2     1    20  2
    3     1    21  1
    4     2     3  1
    5     2     7  1
    6     3     4  1
    7     3    10  1
    8     3    11  1
    9     4     5  1
   10     4    12  1
   11     4    13  1
   12     5     6  1
   13     6    14  1
   14     6    15  1
   15     6    16  1
   16     7     8  1
   17     7    17  1
   18     7    18  1
   19     8     9  2
   20     8    19  1
   21    19    22  1
   22    19    23  1

@<TRIPOS>SUBSTRUCTURE
1 ****        1 TEMP                        0 ****  **** 0 ROOT
